   541
cell= 38.88000000 0.00000000 0.00000000 0.00000000 37.41229744 0.00000000 0.00000000 0.00000000 100.00000000  nsc= 3 3 1
C   0.00000000  0.00000000  20.00000000
C   0.72000000  1.24707658  20.00000000
C   2.16000000  1.24707658  20.00000000
C   2.88000000  0.00000000  20.00000000
C   4.32000000  0.00000000  20.00000000
C   5.04000000  1.24707658  20.00000000
C   6.48000000  1.24707658  20.00000000
C   7.20000000  0.00000000  20.00000000
C   8.64000000  0.00000000  20.00000000
C   9.36000000  1.24707658  20.00000000
C   10.80000000  1.24707658  20.00000000
C   11.52000000  0.00000000  20.00000000
C   12.96000000  0.00000000  20.00000000
C   13.68000000  1.24707658  20.00000000
C   15.12000000  1.24707658  20.00000000
C   15.84000000  0.00000000  20.00000000
C   17.28000000  0.00000000  20.00000000
C   18.00000000  1.24707658  20.00000000
C   19.44000000  1.24707658  20.00000000
C   20.16000000  0.00000000  20.00000000
C   21.60000000  0.00000000  20.00000000
C   22.32000000  1.24707658  20.00000000
C   23.76000000  1.24707658  20.00000000
C   24.48000000  0.00000000  20.00000000
C   25.92000000  0.00000000  20.00000000
C   26.64000000  1.24707658  20.00000000
C   28.08000000  1.24707658  20.00000000
C   28.80000000  0.00000000  20.00000000
C   30.24000000  0.00000000  20.00000000
C   30.96000000  1.24707658  20.00000000
C   32.40000000  1.24707658  20.00000000
C   33.12000000  0.00000000  20.00000000
C   34.56000000  0.00000000  20.00000000
C   35.28000000  1.24707658  20.00000000
C   36.72000000  1.24707658  20.00000000
C   37.44000000  0.00000000  20.00000000
C   0.00000000  2.49415316  20.00000000
C   0.72000000  3.74122974  20.00000000
C   2.16000000  3.74122974  20.00000000
C   2.88000000  2.49415316  20.00000000
C   4.32000000  2.49415316  20.00000000
C   5.04000000  3.74122974  20.00000000
C   6.48000000  3.74122974  20.00000000
C   7.20000000  2.49415316  20.00000000
C   8.64000000  2.49415316  20.00000000
C   9.36000000  3.74122974  20.00000000
C   10.80000000  3.74122974  20.00000000
C   11.52000000  2.49415316  20.00000000
C   12.96000000  2.49415316  20.00000000
C   13.68000000  3.74122974  20.00000000
C   15.12000000  3.74122974  20.00000000
C   15.84000000  2.49415316  20.00000000
C   17.28000000  2.49415316  20.00000000
C   18.00000000  3.74122974  20.00000000
C   19.44000000  3.74122974  20.00000000
C   20.16000000  2.49415316  20.00000000
C   21.60000000  2.49415316  20.00000000
C   22.32000000  3.74122974  20.00000000
C   23.76000000  3.74122974  20.00000000
C   24.48000000  2.49415316  20.00000000
C   25.92000000  2.49415316  20.00000000
C   26.64000000  3.74122974  20.00000000
C   28.08000000  3.74122974  20.00000000
C   28.80000000  2.49415316  20.00000000
C   30.24000000  2.49415316  20.00000000
C   30.96000000  3.74122974  20.00000000
C   32.40000000  3.74122974  20.00000000
C   33.12000000  2.49415316  20.00000000
C   34.56000000  2.49415316  20.00000000
C   35.28000000  3.74122974  20.00000000
C   36.72000000  3.74122974  20.00000000
C   37.44000000  2.49415316  20.00000000
O   0.00000000  4.98830633  20.00000000
O   0.72000000  6.23538291  20.00000000
O   2.16000000  6.23538291  20.00000000
O   2.88000000  4.98830633  20.00000000
O   4.32000000  4.98830633  20.00000000
O   5.04000000  6.23538291  20.00000000
O   6.48000000  6.23538291  20.00000000
O   7.20000000  4.98830633  20.00000000
O   8.64000000  4.98830633  20.00000000
O   9.36000000  6.23538291  20.00000000
O   10.80000000  6.23538291  20.00000000
O   11.52000000  4.98830633  20.00000000
O   12.96000000  4.98830633  20.00000000
O   13.68000000  6.23538291  20.00000000
O   15.12000000  6.23538291  20.00000000
O   15.84000000  4.98830633  20.00000000
O   17.28000000  4.98830633  20.00000000
O   18.00000000  6.23538291  20.00000000
O   19.44000000  6.23538291  20.00000000
O   20.16000000  4.98830633  20.00000000
O   21.60000000  4.98830633  20.00000000
O   22.32000000  6.23538291  20.00000000
O   23.76000000  6.23538291  20.00000000
O   24.48000000  4.98830633  20.00000000
O   25.92000000  4.98830633  20.00000000
O   26.64000000  6.23538291  20.00000000
O   28.08000000  6.23538291  20.00000000
O   28.80000000  4.98830633  20.00000000
O   30.24000000  4.98830633  20.00000000
O   30.96000000  6.23538291  20.00000000
O   32.40000000  6.23538291  20.00000000
O   33.12000000  4.98830633  20.00000000
O   34.56000000  4.98830633  20.00000000
O   35.28000000  6.23538291  20.00000000
O   36.72000000  6.23538291  20.00000000
O   37.44000000  4.98830633  20.00000000
O   0.00000000  7.48245949  20.00000000
O   0.72000000  8.72953607  20.00000000
O   2.16000000  8.72953607  20.00000000
O   2.88000000  7.48245949  20.00000000
O   4.32000000  7.48245949  20.00000000
O   5.04000000  8.72953607  20.00000000
O   6.48000000  8.72953607  20.00000000
O   7.20000000  7.48245949  20.00000000
O   8.64000000  7.48245949  20.00000000
O   9.36000000  8.72953607  20.00000000
O   10.80000000  8.72953607  20.00000000
O   11.52000000  7.48245949  20.00000000
O   12.96000000  7.48245949  20.00000000
O   13.68000000  8.72953607  20.00000000
O   15.12000000  8.72953607  20.00000000
O   15.84000000  7.48245949  20.00000000
O   17.28000000  7.48245949  20.00000000
O   18.00000000  8.72953607  20.00000000
O   19.44000000  8.72953607  20.00000000
O   20.16000000  7.48245949  20.00000000
O   21.60000000  7.48245949  20.00000000
O   22.32000000  8.72953607  20.00000000
O   23.76000000  8.72953607  20.00000000
O   24.48000000  7.48245949  20.00000000
O   25.92000000  7.48245949  20.00000000
O   26.64000000  8.72953607  20.00000000
O   28.08000000  8.72953607  20.00000000
O   28.80000000  7.48245949  20.00000000
O   30.24000000  7.48245949  20.00000000
O   30.96000000  8.72953607  20.00000000
O   32.40000000  8.72953607  20.00000000
O   33.12000000  7.48245949  20.00000000
O   34.56000000  7.48245949  20.00000000
O   35.28000000  8.72953607  20.00000000
O   36.72000000  8.72953607  20.00000000
O   37.44000000  7.48245949  20.00000000
O   0.00000000  9.97661265  20.00000000
O   0.72000000  11.22368923  20.00000000
O   2.16000000  11.22368923  20.00000000
O   2.88000000  9.97661265  20.00000000
O   4.32000000  9.97661265  20.00000000
O   5.04000000  11.22368923  20.00000000
C   6.48000000  11.22368923  20.00000000
O   7.20000000  9.97661265  20.00000000
O   8.64000000  9.97661265  20.00000000
C   9.36000000  11.22368923  20.00000000
C   10.80000000  11.22368923  20.00000000
O   11.52000000  9.97661265  20.00000000
O   12.96000000  9.97661265  20.00000000
C   13.68000000  11.22368923  20.00000000
C   15.12000000  11.22368923  20.00000000
O   15.84000000  9.97661265  20.00000000
O   17.28000000  9.97661265  20.00000000
C   18.00000000  11.22368923  20.00000000
C   19.44000000  11.22368923  20.00000000
O   20.16000000  9.97661265  20.00000000
O   21.60000000  9.97661265  20.00000000
C   22.32000000  11.22368923  20.00000000
C   23.76000000  11.22368923  20.00000000
O   24.48000000  9.97661265  20.00000000
O   25.92000000  9.97661265  20.00000000
C   26.64000000  11.22368923  20.00000000
C   28.08000000  11.22368923  20.00000000
O   28.80000000  9.97661265  20.00000000
O   30.24000000  9.97661265  20.00000000
C   30.96000000  11.22368923  20.00000000
O   32.40000000  11.22368923  20.00000000
O   33.12000000  9.97661265  20.00000000
O   34.56000000  9.97661265  20.00000000
O   35.28000000  11.22368923  20.00000000
O   36.72000000  11.22368923  20.00000000
O   37.44000000  9.97661265  20.00000000
O   0.00000000  12.47076581  20.00000000
O   0.72000000  13.71784240  20.00000000
O   2.16000000  13.71784240  20.00000000
O   2.88000000  12.47076581  20.00000000
O   4.32000000  12.47076581  20.00000000
O   5.04000000  13.71784240  20.00000000
C   6.48000000  13.71784240  20.00000000
C   7.20000000  12.47076581  20.00000000
C   8.64000000  12.47076581  20.00000000
C   9.36000000  13.71784240  20.00000000
C   10.80000000  13.71784240  20.00000000
C   11.52000000  12.47076581  20.00000000
C   12.96000000  12.47076581  20.00000000
C   13.68000000  13.71784240  20.00000000
C   15.12000000  13.71784240  20.00000000
C   15.84000000  12.47076581  20.00000000
C   17.28000000  12.47076581  20.00000000
C   18.00000000  13.71784240  20.00000000
C   19.44000000  13.71784240  20.00000000
C   20.16000000  12.47076581  20.00000000
C   21.60000000  12.47076581  20.00000000
C   22.32000000  13.71784240  20.00000000
C   23.76000000  13.71784240  20.00000000
C   24.48000000  12.47076581  20.00000000
C   25.92000000  12.47076581  20.00000000
C   26.64000000  13.71784240  20.00000000
C   28.08000000  13.71784240  20.00000000
C   28.80000000  12.47076581  20.00000000
C   30.24000000  12.47076581  20.00000000
C   30.96000000  13.71784240  20.00000000
O   32.40000000  13.71784240  20.00000000
O   33.12000000  12.47076581  20.00000000
O   34.56000000  12.47076581  20.00000000
O   35.28000000  13.71784240  20.00000000
O   36.72000000  13.71784240  20.00000000
O   37.44000000  12.47076581  20.00000000
O   0.00000000  14.96491898  20.00000000
O   0.72000000  16.21199556  20.00000000
O   2.16000000  16.21199556  20.00000000
O   2.88000000  14.96491898  20.00000000
O   4.32000000  14.96491898  20.00000000
O   5.04000000  16.21199556  20.00000000
C   6.48000000  16.21199556  20.00000000
C   7.20000000  14.96491898  20.00000000
C   8.64000000  14.96491898  20.00000000
C   9.36000000  16.21199556  20.00000000
C   10.80000000  16.21199556  20.00000000
C   11.52000000  14.96491898  20.00000000
C   12.96000000  14.96491898  20.00000000
C   13.68000000  16.21199556  20.00000000
C   15.12000000  16.21199556  20.00000000
C   15.84000000  14.96491898  20.00000000
C   17.28000000  14.96491898  20.00000000
C   18.00000000  16.21199556  20.00000000
C   19.44000000  16.21199556  20.00000000
C   20.16000000  14.96491898  20.00000000
C   21.60000000  14.96491898  20.00000000
C   22.32000000  16.21199556  20.00000000
C   23.76000000  16.21199556  20.00000000
C   24.48000000  14.96491898  20.00000000
C   25.92000000  14.96491898  20.00000000
C   26.64000000  16.21199556  20.00000000
C   28.08000000  16.21199556  20.00000000
C   28.80000000  14.96491898  20.00000000
C   30.24000000  14.96491898  20.00000000
C   30.96000000  16.21199556  20.00000000
O   32.40000000  16.21199556  20.00000000
O   33.12000000  14.96491898  20.00000000
O   34.56000000  14.96491898  20.00000000
O   35.28000000  16.21199556  20.00000000
O   36.72000000  16.21199556  20.00000000
O   37.44000000  14.96491898  20.00000000
O   0.00000000  17.45907214  20.00000000
O   0.72000000  18.70614872  20.00000000
O   2.16000000  18.70614872  20.00000000
O   2.88000000  17.45907214  20.00000000
O   4.32000000  17.45907214  20.00000000
O   5.04000000  18.70614872  20.00000000
C   6.48000000  18.70614872  20.00000000
C   7.20000000  17.45907214  20.00000000
C   8.64000000  17.45907214  20.00000000
C   9.36000000  18.70614872  20.00000000
C   10.80000000  18.70614872  20.00000000
C   11.52000000  17.45907214  20.00000000
C   12.96000000  17.45907214  20.00000000
C   13.68000000  18.70614872  20.00000000
C   15.12000000  18.70614872  20.00000000
C   15.84000000  17.45907214  20.00000000
C   17.28000000  17.45907214  20.00000000
C   18.00000000  18.70614872  20.00000000
C   19.44000000  18.70614872  20.00000000
C   20.16000000  17.45907214  20.00000000
C   21.60000000  17.45907214  20.00000000
C   22.32000000  18.70614872  20.00000000
C   23.76000000  18.70614872  20.00000000
C   24.48000000  17.45907214  20.00000000
C   25.92000000  17.45907214  20.00000000
C   26.64000000  18.70614872  20.00000000
C   28.08000000  18.70614872  20.00000000
C   28.80000000  17.45907214  20.00000000
C   30.24000000  17.45907214  20.00000000
C   30.96000000  18.70614872  20.00000000
O   32.40000000  18.70614872  20.00000000
O   33.12000000  17.45907214  20.00000000
O   34.56000000  17.45907214  20.00000000
O   35.28000000  18.70614872  20.00000000
O   36.72000000  18.70614872  20.00000000
O   37.44000000  17.45907214  20.00000000
O   0.00000000  19.95322530  20.00000000
O   0.72000000  21.20030188  20.00000000
O   2.16000000  21.20030188  20.00000000
O   2.88000000  19.95322530  20.00000000
O   4.32000000  19.95322530  20.00000000
O   5.04000000  21.20030188  20.00000000
C   6.48000000  21.20030188  20.00000000
C   7.20000000  19.95322530  20.00000000
C   8.64000000  19.95322530  20.00000000
C   9.36000000  21.20030188  20.00000000
C   10.80000000  21.20030188  20.00000000
C   11.52000000  19.95322530  20.00000000
C   12.96000000  19.95322530  20.00000000
C   13.68000000  21.20030188  20.00000000
C   15.12000000  21.20030188  20.00000000
C   15.84000000  19.95322530  20.00000000
C   17.28000000  19.95322530  20.00000000
C   18.00000000  21.20030188  20.00000000
C   19.44000000  21.20030188  20.00000000
C   20.16000000  19.95322530  20.00000000
C   21.60000000  19.95322530  20.00000000
C   22.32000000  21.20030188  20.00000000
C   23.76000000  21.20030188  20.00000000
C   24.48000000  19.95322530  20.00000000
C   25.92000000  19.95322530  20.00000000
C   26.64000000  21.20030188  20.00000000
C   28.08000000  21.20030188  20.00000000
C   28.80000000  19.95322530  20.00000000
C   30.24000000  19.95322530  20.00000000
C   30.96000000  21.20030188  20.00000000
O   32.40000000  21.20030188  20.00000000
O   33.12000000  19.95322530  20.00000000
O   34.56000000  19.95322530  20.00000000
O   35.28000000  21.20030188  20.00000000
O   36.72000000  21.20030188  20.00000000
O   37.44000000  19.95322530  20.00000000
O   0.00000000  22.44737847  20.00000000
O   0.72000000  23.69445505  20.00000000
O   2.16000000  23.69445505  20.00000000
O   2.88000000  22.44737847  20.00000000
O   4.32000000  22.44737847  20.00000000
O   5.04000000  23.69445505  20.00000000
C   6.48000000  23.69445505  20.00000000
C   7.20000000  22.44737847  20.00000000
C   8.64000000  22.44737847  20.00000000
C   9.36000000  23.69445505  20.00000000
C   10.80000000  23.69445505  20.00000000
C   11.52000000  22.44737847  20.00000000
C   12.96000000  22.44737847  20.00000000
C   13.68000000  23.69445505  20.00000000
C   15.12000000  23.69445505  20.00000000
C   15.84000000  22.44737847  20.00000000
C   17.28000000  22.44737847  20.00000000
C   18.00000000  23.69445505  20.00000000
C   19.44000000  23.69445505  20.00000000
C   20.16000000  22.44737847  20.00000000
C   21.60000000  22.44737847  20.00000000
C   22.32000000  23.69445505  20.00000000
C   23.76000000  23.69445505  20.00000000
C   24.48000000  22.44737847  20.00000000
C   25.92000000  22.44737847  20.00000000
C   26.64000000  23.69445505  20.00000000
C   28.08000000  23.69445505  20.00000000
C   28.80000000  22.44737847  20.00000000
C   30.24000000  22.44737847  20.00000000
C   30.96000000  23.69445505  20.00000000
O   32.40000000  23.69445505  20.00000000
O   33.12000000  22.44737847  20.00000000
O   34.56000000  22.44737847  20.00000000
O   35.28000000  23.69445505  20.00000000
O   36.72000000  23.69445505  20.00000000
O   37.44000000  22.44737847  20.00000000
O   0.00000000  24.94153163  20.00000000
O   0.72000000  26.18860821  20.00000000
O   2.16000000  26.18860821  20.00000000
O   2.88000000  24.94153163  20.00000000
O   4.32000000  24.94153163  20.00000000
O   5.04000000  26.18860821  20.00000000
O   6.48000000  26.18860821  20.00000000
C   7.20000000  24.94153163  20.00000000
C   8.64000000  24.94153163  20.00000000
O   9.36000000  26.18860821  20.00000000
O   10.80000000  26.18860821  20.00000000
C   11.52000000  24.94153163  20.00000000
C   12.96000000  24.94153163  20.00000000
O   13.68000000  26.18860821  20.00000000
O   15.12000000  26.18860821  20.00000000
C   15.84000000  24.94153163  20.00000000
C   17.28000000  24.94153163  20.00000000
O   18.00000000  26.18860821  20.00000000
O   19.44000000  26.18860821  20.00000000
C   20.16000000  24.94153163  20.00000000
C   21.60000000  24.94153163  20.00000000
O   22.32000000  26.18860821  20.00000000
O   23.76000000  26.18860821  20.00000000
C   24.48000000  24.94153163  20.00000000
C   25.92000000  24.94153163  20.00000000
O   26.64000000  26.18860821  20.00000000
O   28.08000000  26.18860821  20.00000000
C   28.80000000  24.94153163  20.00000000
C   30.24000000  24.94153163  20.00000000
O   30.96000000  26.18860821  20.00000000
O   32.40000000  26.18860821  20.00000000
O   33.12000000  24.94153163  20.00000000
O   34.56000000  24.94153163  20.00000000
O   35.28000000  26.18860821  20.00000000
O   36.72000000  26.18860821  20.00000000
O   37.44000000  24.94153163  20.00000000
O   0.00000000  27.43568479  20.00000000
O   0.72000000  28.68276137  20.00000000
O   2.16000000  28.68276137  20.00000000
O   2.88000000  27.43568479  20.00000000
O   4.32000000  27.43568479  20.00000000
O   5.04000000  28.68276137  20.00000000
O   6.48000000  28.68276137  20.00000000
O   7.20000000  27.43568479  20.00000000
O   8.64000000  27.43568479  20.00000000
O   9.36000000  28.68276137  20.00000000
O   10.80000000  28.68276137  20.00000000
O   11.52000000  27.43568479  20.00000000
O   12.96000000  27.43568479  20.00000000
O   13.68000000  28.68276137  20.00000000
O   15.12000000  28.68276137  20.00000000
O   15.84000000  27.43568479  20.00000000
O   17.28000000  27.43568479  20.00000000
O   18.00000000  28.68276137  20.00000000
O   19.44000000  28.68276137  20.00000000
O   20.16000000  27.43568479  20.00000000
O   21.60000000  27.43568479  20.00000000
O   22.32000000  28.68276137  20.00000000
O   23.76000000  28.68276137  20.00000000
O   24.48000000  27.43568479  20.00000000
O   25.92000000  27.43568479  20.00000000
O   26.64000000  28.68276137  20.00000000
O   28.08000000  28.68276137  20.00000000
O   28.80000000  27.43568479  20.00000000
O   30.24000000  27.43568479  20.00000000
O   30.96000000  28.68276137  20.00000000
O   32.40000000  28.68276137  20.00000000
O   33.12000000  27.43568479  20.00000000
O   34.56000000  27.43568479  20.00000000
O   35.28000000  28.68276137  20.00000000
O   36.72000000  28.68276137  20.00000000
O   37.44000000  27.43568479  20.00000000
O   0.00000000  29.92983795  20.00000000
O   0.72000000  31.17691454  20.00000000
O   2.16000000  31.17691454  20.00000000
O   2.88000000  29.92983795  20.00000000
O   4.32000000  29.92983795  20.00000000
O   5.04000000  31.17691454  20.00000000
O   6.48000000  31.17691454  20.00000000
O   7.20000000  29.92983795  20.00000000
O   8.64000000  29.92983795  20.00000000
O   9.36000000  31.17691454  20.00000000
O   10.80000000  31.17691454  20.00000000
O   11.52000000  29.92983795  20.00000000
O   12.96000000  29.92983795  20.00000000
O   13.68000000  31.17691454  20.00000000
O   15.12000000  31.17691454  20.00000000
O   15.84000000  29.92983795  20.00000000
O   17.28000000  29.92983795  20.00000000
O   18.00000000  31.17691454  20.00000000
O   19.44000000  31.17691454  20.00000000
O   20.16000000  29.92983795  20.00000000
O   21.60000000  29.92983795  20.00000000
O   22.32000000  31.17691454  20.00000000
O   23.76000000  31.17691454  20.00000000
O   24.48000000  29.92983795  20.00000000
O   25.92000000  29.92983795  20.00000000
O   26.64000000  31.17691454  20.00000000
O   28.08000000  31.17691454  20.00000000
O   28.80000000  29.92983795  20.00000000
O   30.24000000  29.92983795  20.00000000
O   30.96000000  31.17691454  20.00000000
O   32.40000000  31.17691454  20.00000000
O   33.12000000  29.92983795  20.00000000
O   34.56000000  29.92983795  20.00000000
O   35.28000000  31.17691454  20.00000000
O   36.72000000  31.17691454  20.00000000
O   37.44000000  29.92983795  20.00000000
C   0.00000000  32.42399112  20.00000000
C   0.72000000  33.67106770  20.00000000
C   2.16000000  33.67106770  20.00000000
C   2.88000000  32.42399112  20.00000000
C   4.32000000  32.42399112  20.00000000
C   5.04000000  33.67106770  20.00000000
C   6.48000000  33.67106770  20.00000000
C   7.20000000  32.42399112  20.00000000
C   8.64000000  32.42399112  20.00000000
C   9.36000000  33.67106770  20.00000000
C   10.80000000  33.67106770  20.00000000
C   11.52000000  32.42399112  20.00000000
C   12.96000000  32.42399112  20.00000000
C   13.68000000  33.67106770  20.00000000
C   15.12000000  33.67106770  20.00000000
C   15.84000000  32.42399112  20.00000000
C   17.28000000  32.42399112  20.00000000
C   18.00000000  33.67106770  20.00000000
C   19.44000000  33.67106770  20.00000000
C   20.16000000  32.42399112  20.00000000
C   21.60000000  32.42399112  20.00000000
C   22.32000000  33.67106770  20.00000000
C   23.76000000  33.67106770  20.00000000
C   24.48000000  32.42399112  20.00000000
C   25.92000000  32.42399112  20.00000000
C   26.64000000  33.67106770  20.00000000
C   28.08000000  33.67106770  20.00000000
C   28.80000000  32.42399112  20.00000000
C   30.24000000  32.42399112  20.00000000
C   30.96000000  33.67106770  20.00000000
C   32.40000000  33.67106770  20.00000000
C   33.12000000  32.42399112  20.00000000
C   34.56000000  32.42399112  20.00000000
C   35.28000000  33.67106770  20.00000000
C   36.72000000  33.67106770  20.00000000
C   37.44000000  32.42399112  20.00000000
C   0.00000000  34.91814428  20.00000000
C   0.72000000  36.16522086  20.00000000
C   2.16000000  36.16522086  20.00000000
C   2.88000000  34.91814428  20.00000000
C   4.32000000  34.91814428  20.00000000
C   5.04000000  36.16522086  20.00000000
C   6.48000000  36.16522086  20.00000000
C   7.20000000  34.91814428  20.00000000
C   8.64000000  34.91814428  20.00000000
C   9.36000000  36.16522086  20.00000000
C   10.80000000  36.16522086  20.00000000
C   11.52000000  34.91814428  20.00000000
C   12.96000000  34.91814428  20.00000000
C   13.68000000  36.16522086  20.00000000
C   15.12000000  36.16522086  20.00000000
C   15.84000000  34.91814428  20.00000000
C   17.28000000  34.91814428  20.00000000
C   18.00000000  36.16522086  20.00000000
C   19.44000000  36.16522086  20.00000000
C   20.16000000  34.91814428  20.00000000
C   21.60000000  34.91814428  20.00000000
C   22.32000000  36.16522086  20.00000000
C   23.76000000  36.16522086  20.00000000
C   24.48000000  34.91814428  20.00000000
C   25.92000000  34.91814428  20.00000000
C   26.64000000  36.16522086  20.00000000
C   28.08000000  36.16522086  20.00000000
C   28.80000000  34.91814428  20.00000000
C   30.24000000  34.91814428  20.00000000
C   30.96000000  36.16522086  20.00000000
C   32.40000000  36.16522086  20.00000000
C   33.12000000  34.91814428  20.00000000
C   34.56000000  34.91814428  20.00000000
C   35.28000000  36.16522086  20.00000000
C   36.72000000  36.16522086  20.00000000
C   37.44000000  34.91814428  20.00000000
O   18.71999999  18.70615000  21.38863076

